psse/psse-converter/src/test/resources/IEEE_57_bus.xiidm
<?xml version="1.0" encoding="UTF-8"?>
<iidm:network xmlns:iidm="http://www.powsybl.org/schema/iidm/1_18" xmlns:slt="http://www.powsybl.org/schema/iidm/ext/slack_terminal/1_5" id="IEEE_57_bus" caseDate="2016-01-01T10:00:00.000+02:00" forecastDistance="0" sourceFormat="PSS/E" minimumValidationLevel="STEADY_STATE_HYPOTHESIS">
    <iidm:substation id="S1">
        <iidm:voltageLevel id="VL1" nominalV="138.0" topologyKind="BUS_BREAKER">
            <iidm:busBreakerTopology>
                <iidm:bus id="B1" name="Kanawha     " v="143.52" angle="0.0"/>
            </iidm:busBreakerTopology>
            <iidm:generator id="B1-G1 " energySource="OTHER" minP="-10000.0" maxP="10000.0" targetP="478.664" localTargetV="143.52" localTargetQ="128.849" bus="B1" connectableBus="B1">
                <iidm:minMaxReactiveLimits minQ="0.0" maxQ="0.0"/>
            </iidm:generator>
            <iidm:load id="B1-L1 " loadType="UNDEFINED" p0="55.0" q0="17.0" bus="B1" connectableBus="B1"/>
        </iidm:voltageLevel>
    </iidm:substation>
    <iidm:substation id="S2">
        <iidm:voltageLevel id="VL2" nominalV="138.0" topologyKind="BUS_BREAKER">
            <iidm:busBreakerTopology>
                <iidm:bus id="B2" name="Turner      " v="139.38" angle="-1.1882"/>
            </iidm:busBreakerTopology>
            <iidm:generator id="B2-G1 " energySource="OTHER" minP="-10000.0" maxP="10000.0" targetP="0.0" localTargetV="139.38" localTargetQ="-0.755" bus="B2" connectableBus="B2">
                <iidm:minMaxReactiveLimits minQ="-17.0" maxQ="50.0"/>
                <iidm:voltageRegulation mode="VOLTAGE" regulating="true"/>
            </iidm:generator>
            <iidm:load id="B2-L1 " loadType="UNDEFINED" p0="3.0" q0="88.0" bus="B2" connectableBus="B2"/>
        </iidm:voltageLevel>
    </iidm:substation>
    <iidm:substation id="S3">
        <iidm:voltageLevel id="VL3" nominalV="138.0" topologyKind="BUS_BREAKER">
            <iidm:busBreakerTopology>
                <iidm:bus id="B3" name="Logan       " v="135.93" angle="-5.9881"/>
            </iidm:busBreakerTopology>
            <iidm:generator id="B3-G1 " energySource="OTHER" minP="-10000.0" maxP="10000.0" targetP="40.0" localTargetV="135.93" localTargetQ="-0.905" bus="B3" connectableBus="B3">
                <iidm:minMaxReactiveLimits minQ="-10.0" maxQ="60.0"/>
                <iidm:voltageRegulation mode="VOLTAGE" regulating="true"/>
            </iidm:generator>
            <iidm:load id="B3-L1 " loadType="UNDEFINED" p0="41.0" q0="21.0" bus="B3" connectableBus="B3"/>
        </iidm:voltageLevel>
    </iidm:substation>
    <iidm:substation id="S4-18">
        <iidm:voltageLevel id="VL4-18" nominalV="138.0" topologyKind="BUS_BREAKER">
            <iidm:busBreakerTopology>
                <iidm:bus id="B4" name="Sprigg      " v="135.34763999999998" angle="-7.3374"/>
                <iidm:bus id="B18" name="Sprigg      " v="138.09108" angle="-11.7296"/>
            </iidm:busBreakerTopology>
            <iidm:load id="B18-L1 " loadType="UNDEFINED" p0="27.2" q0="9.8" bus="B18" connectableBus="B18"/>
            <iidm:shuntCompensator id="B18-SH 1" sectionCount="1" bus="B18" connectableBus="B18">
                <iidm:shuntLinearModel bPerSection="5.250997689561017E-4" gPerSection="0.0" maximumSectionCount="1"/>
            </iidm:shuntCompensator>
        </iidm:voltageLevel>
        <iidm:twoWindingsTransformer id="T-4-18-1 " r="0.0" x="81.8892" ratedU1="138.0" ratedU2="138.0" voltageLevelId1="VL4-18" bus1="B4" connectableBus1="B4" voltageLevelId2="VL4-18" bus2="B18" connectableBus2="B18">
            <iidm:ratioTapChanger tapPosition="0" loadTapChangingCapabilities="false">
                <iidm:step g="-4.3515999999999995" b="-4.3515999999999995" rho="1.0224948875255624"/>
            </iidm:ratioTapChanger>
        </iidm:twoWindingsTransformer>
        <iidm:twoWindingsTransformer id="T-4-18-2 " r="0.0" x="105.69420000000001" ratedU1="138.0" ratedU2="138.0" voltageLevelId1="VL4-18" bus1="B4" connectableBus1="B4" voltageLevelId2="VL4-18" bus2="B18" connectableBus2="B18">
            <iidm:ratioTapChanger tapPosition="0" loadTapChangingCapabilities="false">
                <iidm:step g="-5.910000000000004" b="-5.910000000000004" rho="1.0309278350515465"/>
            </iidm:ratioTapChanger>
        </iidm:twoWindingsTransformer>
    </iidm:substation>
    <iidm:substation id="S5">
        <iidm:voltageLevel id="VL5" nominalV="138.0" topologyKind="BUS_BREAKER">
            <iidm:busBreakerTopology>
                <iidm:bus id="B5" name="Bus 5       " v="134.757" angle="-8.5464"/>
            </iidm:busBreakerTopology>
            <iidm:load id="B5-L1 " loadType="UNDEFINED" p0="13.0" q0="4.0" bus="B5" connectableBus="B5"/>
        </iidm:voltageLevel>
    </iidm:substation>
    <iidm:substation id="S6">
        <iidm:voltageLevel id="VL6" nominalV="138.0" topologyKind="BUS_BREAKER">
            <iidm:busBreakerTopology>
                <iidm:bus id="B6" name="Beaver C    " v="135.24" angle="-8.6741"/>
            </iidm:busBreakerTopology>
            <iidm:generator id="B6-G1 " energySource="OTHER" minP="-10000.0" maxP="10000.0" targetP="0.0" localTargetV="135.24" localTargetQ="0.871" bus="B6" connectableBus="B6">
                <iidm:minMaxReactiveLimits minQ="-8.0" maxQ="25.0"/>
                <iidm:voltageRegulation mode="VOLTAGE" regulating="true"/>
            </iidm:generator>
            <iidm:load id="B6-L1 " loadType="UNDEFINED" p0="75.0" q0="2.0" bus="B6" connectableBus="B6"/>
        </iidm:voltageLevel>
    </iidm:substation>
    <iidm:substation id="S7-29">
        <iidm:voltageLevel id="VL7-29" nominalV="138.0" topologyKind="BUS_BREAKER">
            <iidm:busBreakerTopology>
                <iidm:bus id="B7" name="Bus 7       " v="135.8196" angle="-7.6014"/>
                <iidm:bus id="B29" name="Bus 29      " v="139.41036" angle="-9.7718"/>
            </iidm:busBreakerTopology>
            <iidm:load id="B29-L1 " loadType="UNDEFINED" p0="17.0" q0="2.6" bus="B29" connectableBus="B29"/>
        </iidm:voltageLevel>
        <iidm:twoWindingsTransformer id="T-7-29-1 " r="0.0" x="12.340511999999999" ratedU1="138.0" ratedU2="138.0" voltageLevelId1="VL7-29" bus1="B7" connectableBus1="B7" voltageLevelId2="VL7-29" bus2="B29" connectableBus2="B29">
            <iidm:ratioTapChanger tapPosition="0" loadTapChangingCapabilities="false">
                <iidm:step g="-6.491100000000005" b="-6.491100000000005" rho="1.0341261633919339"/>
            </iidm:ratioTapChanger>
        </iidm:twoWindingsTransformer>
    </iidm:substation>
    <iidm:substation id="S8">
        <iidm:voltageLevel id="VL8" nominalV="138.0" topologyKind="BUS_BREAKER">
            <iidm:busBreakerTopology>
                <iidm:bus id="B8" name="Clinch R    " v="138.69" angle="-4.4779"/>
            </iidm:busBreakerTopology>
            <iidm:generator id="B8-G1 " energySource="OTHER" minP="-10000.0" maxP="10000.0" targetP="450.0" localTargetV="138.69" localTargetQ="62.1" bus="B8" connectableBus="B8">
                <iidm:minMaxReactiveLimits minQ="-140.0" maxQ="200.0"/>
                <iidm:voltageRegulation mode="VOLTAGE" regulating="true"/>
            </iidm:generator>
            <iidm:load id="B8-L1 " loadType="UNDEFINED" p0="150.0" q0="22.0" bus="B8" connectableBus="B8"/>
        </iidm:voltageLevel>
    </iidm:substation>
    <iidm:substation id="S9-55">
        <iidm:voltageLevel id="VL9-55" nominalV="138.0" topologyKind="BUS_BREAKER">
            <iidm:busBreakerTopology>
                <iidm:bus id="B9" name="Saltvill    " v="135.24" angle="-9.5847"/>
                <iidm:bus id="B55" name="Saltvill    " v="142.24902" angle="-10.8011"/>
            </iidm:busBreakerTopology>
            <iidm:generator id="B9-G1 " energySource="OTHER" minP="-10000.0" maxP="10000.0" targetP="0.0" localTargetV="135.24" localTargetQ="2.288" bus="B9" connectableBus="B9">
                <iidm:minMaxReactiveLimits minQ="-3.0" maxQ="9.0"/>
                <iidm:voltageRegulation mode="VOLTAGE" regulating="true"/>
            </iidm:generator>
            <iidm:load id="B9-L1 " loadType="UNDEFINED" p0="121.0" q0="26.0" bus="B9" connectableBus="B9"/>
            <iidm:load id="B55-L1 " loadType="UNDEFINED" p0="6.8" q0="3.4" bus="B55" connectableBus="B55"/>
        </iidm:voltageLevel>
        <iidm:twoWindingsTransformer id="T-9-55-1 " r="0.0" x="22.94802" ratedU1="138.0" ratedU2="138.0" voltageLevelId1="VL9-55" bus1="B9" connectableBus1="B9" voltageLevelId2="VL9-55" bus2="B55" connectableBus2="B55">
            <iidm:ratioTapChanger tapPosition="0" loadTapChangingCapabilities="false">
                <iidm:step g="-11.640000000000006" b="-11.640000000000006" rho="1.0638297872340425"/>
            </iidm:ratioTapChanger>
        </iidm:twoWindingsTransformer>
    </iidm:substation>
    <iidm:substation id="S10-51">
        <iidm:voltageLevel id="VL10-51" nominalV="138.0" topologyKind="BUS_BREAKER">
            <iidm:busBreakerTopology>
                <iidm:bus id="B10" name="Bus 10      " v="136.10112" angle="-11.4497"/>
                <iidm:bus id="B51" name="Bus 51      " v="145.21188" angle="-12.5334"/>
            </iidm:busBreakerTopology>
            <iidm:load id="B10-L1 " loadType="UNDEFINED" p0="5.0" q0="2.0" bus="B10" connectableBus="B10"/>
            <iidm:load id="B51-L1 " loadType="UNDEFINED" p0="18.0" q0="5.3" bus="B51" connectableBus="B51"/>
        </iidm:voltageLevel>
        <iidm:twoWindingsTransformer id="T-10-51-1 " r="0.0" x="13.559327999999999" ratedU1="138.0" ratedU2="138.0" voltageLevelId1="VL10-51" bus1="B10" connectableBus1="B10" voltageLevelId2="VL10-51" bus2="B51" connectableBus2="B51">
            <iidm:ratioTapChanger tapPosition="0" loadTapChangingCapabilities="false">
                <iidm:step g="-13.50999999999999" b="-13.50999999999999" rho="1.075268817204301"/>
            </iidm:ratioTapChanger>
        </iidm:twoWindingsTransformer>
    </iidm:substation>
    <iidm:substation id="S11-41-43">
        <iidm:voltageLevel id="VL11-41-43" nominalV="138.0" topologyKind="BUS_BREAKER">
            <iidm:busBreakerTopology>
                <iidm:bus id="B11" name="Tazewell    " v="134.40648000000002" angle="-10.1932"/>
                <iidm:bus id="B41" name="Tazewell    " v="137.47836" angle="-14.0767"/>
                <iidm:bus id="B43" name="Tazewell    " v="139.31928" angle="-11.3544"/>
            </iidm:busBreakerTopology>
            <iidm:load id="B41-L1 " loadType="UNDEFINED" p0="6.3" q0="3.0" bus="B41" connectableBus="B41"/>
            <iidm:load id="B43-L1 " loadType="UNDEFINED" p0="2.0" q0="1.0" bus="B43" connectableBus="B43"/>
        </iidm:voltageLevel>
        <iidm:twoWindingsTransformer id="T-11-41-1 " r="0.0" x="142.63956" ratedU1="138.0" ratedU2="138.0" voltageLevelId1="VL11-41-43" bus1="B11" connectableBus1="B11" voltageLevelId2="VL11-41-43" bus2="B41" connectableBus2="B41">
            <iidm:ratioTapChanger tapPosition="0" loadTapChangingCapabilities="false">
                <iidm:step g="-8.797500000000003" b="-8.797500000000003" rho="1.0471204188481675"/>
            </iidm:ratioTapChanger>
        </iidm:twoWindingsTransformer>
        <iidm:twoWindingsTransformer id="T-11-43-1 " r="0.0" x="29.13732" ratedU1="138.0" ratedU2="138.0" voltageLevelId1="VL11-41-43" bus1="B11" connectableBus1="B11" voltageLevelId2="VL11-41-43" bus2="B43" connectableBus2="B43">
            <iidm:ratioTapChanger tapPosition="0" loadTapChangingCapabilities="false">
                <iidm:step g="-8.223600000000008" b="-8.223600000000008" rho="1.0438413361169103"/>
            </iidm:ratioTapChanger>
        </iidm:twoWindingsTransformer>
    </iidm:substation>
    <iidm:substation id="S12">
        <iidm:voltageLevel id="VL12" nominalV="138.0" topologyKind="BUS_BREAKER">
            <iidm:busBreakerTopology>
                <iidm:bus id="B12" name="Glen Lyn    " v="140.07" angle="-10.4712"/>
            </iidm:busBreakerTopology>
            <iidm:generator id="B12-G1 " energySource="OTHER" minP="-10000.0" maxP="10000.0" targetP="310.0" localTargetV="140.07" localTargetQ="128.631" bus="B12" connectableBus="B12">
                <iidm:minMaxReactiveLimits minQ="-150.0" maxQ="155.0"/>
                <iidm:voltageRegulation mode="VOLTAGE" regulating="true"/>
            </iidm:generator>
            <iidm:load id="B12-L1 " loadType="UNDEFINED" p0="377.0" q0="24.0" bus="B12" connectableBus="B12"/>
        </iidm:voltageLevel>
    </iidm:substation>
    <iidm:substation id="S13-49">
        <iidm:voltageLevel id="VL13-49" nominalV="138.0" topologyKind="BUS_BREAKER">
            <iidm:busBreakerTopology>
                <iidm:bus id="B13" name="Bus 13      " v="135.08682000000002" angle="-9.8035"/>
                <iidm:bus id="B49" name="Bus 49      " v="143.0025" angle="-12.9361"/>
            </iidm:busBreakerTopology>
            <iidm:load id="B13-L1 " loadType="UNDEFINED" p0="18.0" q0="2.3" bus="B13" connectableBus="B13"/>
            <iidm:load id="B49-L1 " loadType="UNDEFINED" p0="18.0" q0="8.5" bus="B49" connectableBus="B49"/>
        </iidm:voltageLevel>
        <iidm:twoWindingsTransformer id="T-13-49-1 " r="0.0" x="36.37404" ratedU1="138.0" ratedU2="138.0" voltageLevelId1="VL13-49" bus1="B13" connectableBus1="B13" voltageLevelId2="VL13-49" bus2="B49" connectableBus2="B49">
            <iidm:ratioTapChanger tapPosition="0" loadTapChangingCapabilities="false">
                <iidm:step g="-19.8975" b="-19.8975" rho="1.1173184357541899"/>
            </iidm:ratioTapChanger>
        </iidm:twoWindingsTransformer>
    </iidm:substation>
    <iidm:substation id="S14-46">
        <iidm:voltageLevel id="VL14-46" nominalV="138.0" topologyKind="BUS_BREAKER">
            <iidm:busBreakerTopology>
                <iidm:bus id="B14" name="Bus 14      " v="133.88484" angle="-9.3503"/>
                <iidm:bus id="B46" name="Bus 46      " v="146.25240000000002" angle="-11.1161"/>
            </iidm:busBreakerTopology>
            <iidm:load id="B14-L1 " loadType="UNDEFINED" p0="10.5" q0="5.3" bus="B14" connectableBus="B14"/>
        </iidm:voltageLevel>
        <iidm:twoWindingsTransformer id="T-14-46-1 " r="0.0" x="13.99734" ratedU1="138.0" ratedU2="138.0" voltageLevelId1="VL14-46" bus1="B14" connectableBus1="B14" voltageLevelId2="VL14-46" bus2="B46" connectableBus2="B46">
            <iidm:ratioTapChanger tapPosition="0" loadTapChangingCapabilities="false">
                <iidm:step g="-18.999999999999993" b="-18.999999999999993" rho="1.1111111111111112"/>
            </iidm:ratioTapChanger>
        </iidm:twoWindingsTransformer>
    </iidm:substation>
    <iidm:substation id="S15-45">
        <iidm:voltageLevel id="VL15-45" nominalV="138.0" topologyKind="BUS_BREAKER">
            <iidm:busBreakerTopology>
                <iidm:bus id="B15" name="Bus 15      " v="136.34814" angle="-7.1902"/>
                <iidm:bus id="B45" name="Bus 45      " v="142.96800000000002" angle="-9.2701"/>
            </iidm:busBreakerTopology>
            <iidm:load id="B15-L1 " loadType="UNDEFINED" p0="22.0" q0="5.0" bus="B15" connectableBus="B15"/>
        </iidm:voltageLevel>
        <iidm:twoWindingsTransformer id="T-15-45-1 " r="0.0" x="19.843848" ratedU1="138.0" ratedU2="138.0" voltageLevelId1="VL15-45" bus1="B15" connectableBus1="B15" voltageLevelId2="VL15-45" bus2="B45" connectableBus2="B45">
            <iidm:ratioTapChanger tapPosition="0" loadTapChangingCapabilities="false">
                <iidm:step g="-8.797500000000003" b="-8.797500000000003" rho="1.0471204188481675"/>
            </iidm:ratioTapChanger>
        </iidm:twoWindingsTransformer>
    </iidm:substation>
    <iidm:substation id="S16">
        <iidm:voltageLevel id="VL16" nominalV="138.0" topologyKind="BUS_BREAKER">
            <iidm:busBreakerTopology>
                <iidm:bus id="B16" name="Bus 16      " v="139.84506000000002" angle="-8.8589"/>
            </iidm:busBreakerTopology>
            <iidm:load id="B16-L1 " loadType="UNDEFINED" p0="43.0" q0="3.0" bus="B16" connectableBus="B16"/>
        </iidm:voltageLevel>
    </iidm:substation>
    <iidm:substation id="S17">
        <iidm:voltageLevel id="VL17" nominalV="138.0" topologyKind="BUS_BREAKER">
            <iidm:busBreakerTopology>
                <iidm:bus id="B17" name="Bus 17      " v="140.4081" angle="-5.3959"/>
            </iidm:busBreakerTopology>
            <iidm:load id="B17-L1 " loadType="UNDEFINED" p0="42.0" q0="8.0" bus="B17" connectableBus="B17"/>
        </iidm:voltageLevel>
    </iidm:substation>
    <iidm:substation id="S19">
        <iidm:voltageLevel id="VL19" nominalV="138.0" topologyKind="BUS_BREAKER">
            <iidm:busBreakerTopology>
                <iidm:bus id="B19" name="Bus 19      " v="133.88208" angle="-13.2265"/>
            </iidm:busBreakerTopology>
            <iidm:load id="B19-L1 " loadType="UNDEFINED" p0="3.3" q0="0.6" bus="B19" connectableBus="B19"/>
        </iidm:voltageLevel>
    </iidm:substation>
    <iidm:substation id="S20-21">
        <iidm:voltageLevel id="VL20-21" nominalV="138.0" topologyKind="BUS_BREAKER">
            <iidm:busBreakerTopology>
                <iidm:bus id="B20" name="Bus 20      " v="133.00302" angle="-13.4443"/>
                <iidm:bus id="B21" name="Bus 21      " v="139.173" angle="-12.929"/>
            </iidm:busBreakerTopology>
            <iidm:load id="B20-L1 " loadType="UNDEFINED" p0="2.3" q0="1.0" bus="B20" connectableBus="B20"/>
        </iidm:voltageLevel>
        <iidm:twoWindingsTransformer id="T-21-20-1 " r="0.0" x="147.91474799999997" ratedU1="138.0" ratedU2="138.0" voltageLevelId1="VL20-21" bus1="B21" connectableBus1="B21" voltageLevelId2="VL20-21" bus2="B20" connectableBus2="B20">
            <iidm:ratioTapChanger tapPosition="0" loadTapChangingCapabilities="false">
                <iidm:step g="8.784899999999984" b="8.784899999999984" rho="0.9587727708533078"/>
            </iidm:ratioTapChanger>
        </iidm:twoWindingsTransformer>
    </iidm:substation>
    <iidm:substation id="S22">
        <iidm:voltageLevel id="VL22" nominalV="138.0" topologyKind="BUS_BREAKER">
            <iidm:busBreakerTopology>
                <iidm:bus id="B22" name="Bus 22      " v="139.34412" angle="-12.8743"/>
            </iidm:busBreakerTopology>
        </iidm:voltageLevel>
    </iidm:substation>
    <iidm:substation id="S23">
        <iidm:voltageLevel id="VL23" nominalV="138.0" topologyKind="BUS_BREAKER">
            <iidm:busBreakerTopology>
                <iidm:bus id="B23" name="Bus 23      " v="139.14954" angle="-12.9396"/>
            </iidm:busBreakerTopology>
            <iidm:load id="B23-L1 " loadType="UNDEFINED" p0="6.3" q0="2.1" bus="B23" connectableBus="B23"/>
        </iidm:voltageLevel>
    </iidm:substation>
    <iidm:substation id="S24-26">
        <iidm:voltageLevel id="VL24-26" nominalV="138.0" topologyKind="BUS_BREAKER">
            <iidm:busBreakerTopology>
                <iidm:bus id="B24" name="Bus 24      " v="137.89373999999998" angle="-13.2921"/>
                <iidm:bus id="B26" name="Bus 26      " v="132.31716" angle="-12.9813"/>
            </iidm:busBreakerTopology>
        </iidm:voltageLevel>
        <iidm:twoWindingsTransformer id="T-24-26-1 " r="0.0" x="9.007812" ratedU1="138.0" ratedU2="138.0" voltageLevelId1="VL24-26" bus1="B24" connectableBus1="B24" voltageLevelId2="VL24-26" bus2="B26" connectableBus2="B26">
            <iidm:ratioTapChanger tapPosition="0" loadTapChangingCapabilities="false">
                <iidm:step g="8.784899999999984" b="8.784899999999984" rho="0.9587727708533078"/>
            </iidm:ratioTapChanger>
        </iidm:twoWindingsTransformer>
    </iidm:substation>
    <iidm:substation id="S25">
        <iidm:voltageLevel id="VL25" nominalV="138.0" topologyKind="BUS_BREAKER">
            <iidm:busBreakerTopology>
                <iidm:bus id="B25" name="Bus 25      " v="135.58776" angle="-18.1732"/>
            </iidm:busBreakerTopology>
            <iidm:load id="B25-L1 " loadType="UNDEFINED" p0="6.3" q0="3.2" bus="B25" connectableBus="B25"/>
            <iidm:shuntCompensator id="B25-SH 1" sectionCount="1" bus="B25" connectableBus="B25">
                <iidm:shuntLinearModel bPerSection="3.098088636841E-4" gPerSection="0.0" maximumSectionCount="1"/>
            </iidm:shuntCompensator>
        </iidm:voltageLevel>
    </iidm:substation>
    <iidm:substation id="S27">
        <iidm:voltageLevel id="VL27" nominalV="138.0" topologyKind="BUS_BREAKER">
            <iidm:busBreakerTopology>
                <iidm:bus id="B27" name="Bus 27      " v="135.45252" angle="-11.5136"/>
            </iidm:busBreakerTopology>
            <iidm:load id="B27-L1 " loadType="UNDEFINED" p0="9.3" q0="0.5" bus="B27" connectableBus="B27"/>
        </iidm:voltageLevel>
    </iidm:substation>
    <iidm:substation id="S28">
        <iidm:voltageLevel id="VL28" nominalV="138.0" topologyKind="BUS_BREAKER">
            <iidm:busBreakerTopology>
                <iidm:bus id="B28" name="Bus 28      " v="137.54184" angle="-10.4816"/>
            </iidm:busBreakerTopology>
            <iidm:load id="B28-L1 " loadType="UNDEFINED" p0="4.6" q0="2.3" bus="B28" connectableBus="B28"/>
        </iidm:voltageLevel>
    </iidm:substation>
    <iidm:substation id="S30">
        <iidm:voltageLevel id="VL30" nominalV="138.0" topologyKind="BUS_BREAKER">
            <iidm:busBreakerTopology>
                <iidm:bus id="B30" name="Bus 30      " v="132.84708" angle="-18.7196"/>
            </iidm:busBreakerTopology>
            <iidm:load id="B30-L1 " loadType="UNDEFINED" p0="3.6" q0="1.8" bus="B30" connectableBus="B30"/>
        </iidm:voltageLevel>
    </iidm:substation>
    <iidm:substation id="S31">
        <iidm:voltageLevel id="VL31" nominalV="138.0" topologyKind="BUS_BREAKER">
            <iidm:busBreakerTopology>
                <iidm:bus id="B31" name="Bus 31      " v="129.15834" angle="-19.3838"/>
            </iidm:busBreakerTopology>
            <iidm:load id="B31-L1 " loadType="UNDEFINED" p0="5.8" q0="2.9" bus="B31" connectableBus="B31"/>
        </iidm:voltageLevel>
    </iidm:substation>
    <iidm:substation id="S32-34">
        <iidm:voltageLevel id="VL32-34" nominalV="138.0" topologyKind="BUS_BREAKER">
            <iidm:busBreakerTopology>
                <iidm:bus id="B32" name="Bus 32      " v="131.08206" angle="-18.5123"/>
                <iidm:bus id="B34" name="Bus 34      " v="132.36960000000002" angle="-14.149"/>
            </iidm:busBreakerTopology>
            <iidm:load id="B32-L1 " loadType="UNDEFINED" p0="1.6" q0="0.8" bus="B32" connectableBus="B32"/>
        </iidm:voltageLevel>
        <iidm:twoWindingsTransformer id="T-34-32-1 " r="0.0" x="181.48932" ratedU1="138.0" ratedU2="138.0" voltageLevelId1="VL32-34" bus1="B34" connectableBus1="B34" voltageLevelId2="VL32-34" bus2="B32" connectableBus2="B32">
            <iidm:ratioTapChanger tapPosition="0" loadTapChangingCapabilities="false">
                <iidm:step g="-4.937500000000005" b="-4.937500000000005" rho="1.0256410256410258"/>
            </iidm:ratioTapChanger>
        </iidm:twoWindingsTransformer>
    </iidm:substation>
    <iidm:substation id="S33">
        <iidm:voltageLevel id="VL33" nominalV="138.0" topologyKind="BUS_BREAKER">
            <iidm:busBreakerTopology>
                <iidm:bus id="B33" name="Bus 33      " v="130.76604" angle="-18.552"/>
            </iidm:busBreakerTopology>
            <iidm:load id="B33-L1 " loadType="UNDEFINED" p0="3.8" q0="1.9" bus="B33" connectableBus="B33"/>
        </iidm:voltageLevel>
    </iidm:substation>
    <iidm:substation id="S35">
        <iidm:voltageLevel id="VL35" nominalV="138.0" topologyKind="BUS_BREAKER">
            <iidm:busBreakerTopology>
                <iidm:bus id="B35" name="Bus 35      " v="133.33698" angle="-13.9062"/>
            </iidm:busBreakerTopology>
            <iidm:load id="B35-L1 " loadType="UNDEFINED" p0="6.0" q0="3.0" bus="B35" connectableBus="B35"/>
        </iidm:voltageLevel>
    </iidm:substation>
    <iidm:substation id="S36">
        <iidm:voltageLevel id="VL36" nominalV="138.0" topologyKind="BUS_BREAKER">
            <iidm:busBreakerTopology>
                <iidm:bus id="B36" name="Bus 36      " v="134.66454" angle="-13.6348"/>
            </iidm:busBreakerTopology>
        </iidm:voltageLevel>
    </iidm:substation>
    <iidm:substation id="S37">
        <iidm:voltageLevel id="VL37" nominalV="138.0" topologyKind="BUS_BREAKER">
            <iidm:busBreakerTopology>
                <iidm:bus id="B37" name="Bus 37      " v="135.91482000000002" angle="-13.4459"/>
            </iidm:busBreakerTopology>
        </iidm:voltageLevel>
    </iidm:substation>
    <iidm:substation id="S38">
        <iidm:voltageLevel id="VL38" nominalV="138.0" topologyKind="BUS_BREAKER">
            <iidm:busBreakerTopology>
                <iidm:bus id="B38" name="Bus 38      " v="139.76778" angle="-12.7346"/>
            </iidm:busBreakerTopology>
            <iidm:load id="B38-L1 " loadType="UNDEFINED" p0="14.0" q0="7.0" bus="B38" connectableBus="B38"/>
        </iidm:voltageLevel>
    </iidm:substation>
    <iidm:substation id="S39-57">
        <iidm:voltageLevel id="VL39-57" nominalV="138.0" topologyKind="BUS_BREAKER">
            <iidm:busBreakerTopology>
                <iidm:bus id="B39" name="Bus 39      " v="135.62916" angle="-13.491"/>
                <iidm:bus id="B57" name="Bus 57      " v="133.14654" angle="-16.5837"/>
            </iidm:busBreakerTopology>
            <iidm:load id="B57-L1 " loadType="UNDEFINED" p0="6.7" q0="2.0" bus="B57" connectableBus="B57"/>
        </iidm:voltageLevel>
        <iidm:twoWindingsTransformer id="T-39-57-1 " r="0.0" x="258.0462" ratedU1="138.0" ratedU2="138.0" voltageLevelId1="VL39-57" bus1="B39" connectableBus1="B39" voltageLevelId2="VL39-57" bus2="B57" connectableBus2="B57">
            <iidm:ratioTapChanger tapPosition="0" loadTapChangingCapabilities="false">
                <iidm:step g="-3.960000000000008" b="-3.960000000000008" rho="1.0204081632653061"/>
            </iidm:ratioTapChanger>
        </iidm:twoWindingsTransformer>
    </iidm:substation>
    <iidm:substation id="S40-56">
        <iidm:voltageLevel id="VL40-56" nominalV="138.0" topologyKind="BUS_BREAKER">
            <iidm:busBreakerTopology>
                <iidm:bus id="B40" name="Bus 40      " v="134.24778" angle="-13.6582"/>
                <iidm:bus id="B56" name="Bus 56      " v="133.63505999999998" angle="-16.0651"/>
            </iidm:busBreakerTopology>
            <iidm:load id="B56-L1 " loadType="UNDEFINED" p0="7.6" q0="2.2" bus="B56" connectableBus="B56"/>
        </iidm:voltageLevel>
        <iidm:twoWindingsTransformer id="T-40-56-1 " r="0.0" x="227.57580000000002" ratedU1="138.0" ratedU2="138.0" voltageLevelId1="VL40-56" bus1="B40" connectableBus1="B40" voltageLevelId2="VL40-56" bus2="B56" connectableBus2="B56">
            <iidm:ratioTapChanger tapPosition="0" loadTapChangingCapabilities="false">
                <iidm:step g="-8.223600000000008" b="-8.223600000000008" rho="1.0438413361169103"/>
            </iidm:ratioTapChanger>
        </iidm:twoWindingsTransformer>
    </iidm:substation>
    <iidm:substation id="S42">
        <iidm:voltageLevel id="VL42" nominalV="138.0" topologyKind="BUS_BREAKER">
            <iidm:busBreakerTopology>
                <iidm:bus id="B42" name="Bus 42      " v="133.38114" angle="-15.5328"/>
            </iidm:busBreakerTopology>
            <iidm:load id="B42-L1 " loadType="UNDEFINED" p0="7.1" q0="4.4" bus="B42" connectableBus="B42"/>
        </iidm:voltageLevel>
    </iidm:substation>
    <iidm:substation id="S44">
        <iidm:voltageLevel id="VL44" nominalV="138.0" topologyKind="BUS_BREAKER">
            <iidm:busBreakerTopology>
                <iidm:bus id="B44" name="Bus 44      " v="140.3184" angle="-11.8565"/>
            </iidm:busBreakerTopology>
            <iidm:load id="B44-L1 " loadType="UNDEFINED" p0="12.0" q0="1.8" bus="B44" connectableBus="B44"/>
        </iidm:voltageLevel>
    </iidm:substation>
    <iidm:substation id="S47">
        <iidm:voltageLevel id="VL47" nominalV="138.0" topologyKind="BUS_BREAKER">
            <iidm:busBreakerTopology>
                <iidm:bus id="B47" name="Bus 47      " v="142.5885" angle="-12.5116"/>
            </iidm:busBreakerTopology>
            <iidm:load id="B47-L1 " loadType="UNDEFINED" p0="29.7" q0="11.6" bus="B47" connectableBus="B47"/>
        </iidm:voltageLevel>
    </iidm:substation>
    <iidm:substation id="S48">
        <iidm:voltageLevel id="VL48" nominalV="138.0" topologyKind="BUS_BREAKER">
            <iidm:busBreakerTopology>
                <iidm:bus id="B48" name="Bus 48      " v="141.7743" angle="-12.6107"/>
            </iidm:busBreakerTopology>
        </iidm:voltageLevel>
    </iidm:substation>
    <iidm:substation id="S50">
        <iidm:voltageLevel id="VL50" nominalV="138.0" topologyKind="BUS_BREAKER">
            <iidm:busBreakerTopology>
                <iidm:bus id="B50" name="Bus 50      " v="141.22091999999998" angle="-13.4127"/>
            </iidm:busBreakerTopology>
            <iidm:load id="B50-L1 " loadType="UNDEFINED" p0="21.0" q0="10.5" bus="B50" connectableBus="B50"/>
        </iidm:voltageLevel>
    </iidm:substation>
    <iidm:substation id="S52">
        <iidm:voltageLevel id="VL52" nominalV="138.0" topologyKind="BUS_BREAKER">
            <iidm:busBreakerTopology>
                <iidm:bus id="B52" name="Bus 52      " v="135.29106" angle="-11.4976"/>
            </iidm:busBreakerTopology>
            <iidm:load id="B52-L1 " loadType="UNDEFINED" p0="4.9" q0="2.2" bus="B52" connectableBus="B52"/>
        </iidm:voltageLevel>
    </iidm:substation>
    <iidm:substation id="S53">
        <iidm:voltageLevel id="VL53" nominalV="138.0" topologyKind="BUS_BREAKER">
            <iidm:busBreakerTopology>
                <iidm:bus id="B53" name="Bus 53      " v="133.9911" angle="-12.2526"/>
            </iidm:busBreakerTopology>
            <iidm:load id="B53-L1 " loadType="UNDEFINED" p0="20.0" q0="10.0" bus="B53" connectableBus="B53"/>
            <iidm:shuntCompensator id="B53-SH 1" sectionCount="1" bus="B53" connectableBus="B53">
                <iidm:shuntLinearModel bPerSection="3.30812854442344E-4" gPerSection="0.0" maximumSectionCount="1"/>
            </iidm:shuntCompensator>
        </iidm:voltageLevel>
    </iidm:substation>
    <iidm:substation id="S54">
        <iidm:voltageLevel id="VL54" nominalV="138.0" topologyKind="BUS_BREAKER">
            <iidm:busBreakerTopology>
                <iidm:bus id="B54" name="Bus 54      " v="137.49215999999998" angle="-11.7097"/>
            </iidm:busBreakerTopology>
            <iidm:load id="B54-L1 " loadType="UNDEFINED" p0="4.1" q0="1.4" bus="B54" connectableBus="B54"/>
        </iidm:voltageLevel>
    </iidm:substation>
    <iidm:line id="L-1-2-1 " name="Kanawha_Turner_1 " r="1.580652" x="5.332319999999999" b1="3.386893509766856E-4" b2="3.386893509766856E-4" voltageLevelId1="VL1" bus1="B1" connectableBus1="B1" voltageLevelId2="VL2" bus2="B2" connectableBus2="B2"/>
    <iidm:line id="L-1-15-1 " name="Kanawha_Bus 15_1 " r="3.389832" x="17.33004" b1="2.593992858643142E-4" b2="2.593992858643142E-4" voltageLevelId1="VL1" bus1="B1" connectableBus1="B1" voltageLevelId2="VL15-45" bus2="B15" connectableBus2="B15"/>
    <iidm:line id="L-1-16-1 " name="Kanawha_Bus 16_1 " r="8.645976000000001" x="39.230639999999994" b1="1.4335223692501576E-4" b2="1.4335223692501576E-4" voltageLevelId1="VL1" bus1="B1" connectableBus1="B1" voltageLevelId2="VL16" bus2="B16" connectableBus2="B16"/>
    <iidm:line id="L-1-17-1 " name="Kanawha_Bus 17_1 " r="4.532472" x="20.56752" b1="7.508926696072253E-5" b2="7.508926696072253E-5" voltageLevelId1="VL1" bus1="B1" connectableBus1="B1" voltageLevelId2="VL17" bus2="B17" connectableBus2="B17"/>
    <iidm:line id="L-2-3-1 " name="Turner_Logan_1 " r="5.675112" x="16.1874" b1="2.1476580550304557E-4" b2="2.1476580550304557E-4" voltageLevelId1="VL2" bus1="B2" connectableBus1="B2" voltageLevelId2="VL3" bus2="B3" connectableBus2="B3"/>
    <iidm:line id="L-3-4-1 " name="Logan_Sprigg_1 " r="2.132928" x="6.970104" b1="9.976895610165931E-5" b2="9.976895610165931E-5" voltageLevelId1="VL3" bus1="B3" connectableBus1="B3" voltageLevelId2="VL4-18" bus2="B4" connectableBus2="B4"/>
    <iidm:line id="L-3-15-1 " name="Logan_Bus 15_1 " r="3.0851279999999996" x="10.09332" b1="1.4282713715605964E-4" b2="1.4282713715605964E-4" voltageLevelId1="VL3" bus1="B3" connectableBus1="B3" voltageLevelId2="VL15-45" bus2="B15" connectableBus2="B15"/>
    <iidm:line id="L-4-5-1 " name="Sprigg_Bus 5_1 " r="11.9025" x="25.13808" b1="6.773787019533711E-5" b2="6.773787019533711E-5" voltageLevelId1="VL4-18" bus1="B4" connectableBus1="B4" voltageLevelId2="VL5" bus2="B5" connectableBus2="B5"/>
    <iidm:line id="L-4-6-1 " name="Sprigg_Beaver C_1 " r="8.18892" x="28.185119999999998" b1="9.136735979836167E-5" b2="9.136735979836167E-5" voltageLevelId1="VL4-18" bus1="B4" connectableBus1="B4" voltageLevelId2="VL6" bus2="B6" connectableBus2="B6"/>
    <iidm:line id="L-5-6-1 " name="Bus 5_Beaver C_1 " r="5.751288000000001" x="12.207204" b1="3.2556185675278305E-5" b2="3.2556185675278305E-5" voltageLevelId1="VL5" bus1="B5" connectableBus1="B5" voltageLevelId2="VL6" bus2="B6" connectableBus2="B6"/>
    <iidm:line id="L-6-7-1 " name="Beaver C_Bus 7_1 " r="3.8088000000000006" x="19.424879999999998" b1="7.246376811594203E-5" b2="7.246376811594203E-5" voltageLevelId1="VL6" bus1="B6" connectableBus1="B6" voltageLevelId2="VL7-29" bus2="B7" connectableBus2="B7"/>
    <iidm:line id="L-6-8-1 " name="Beaver C_Clinch R_1 " r="6.455916000000001" x="32.94611999999999" b1="1.233984457046839E-4" b2="1.233984457046839E-4" voltageLevelId1="VL6" bus1="B6" connectableBus1="B6" voltageLevelId2="VL8" bus2="B8" connectableBus2="B8"/>
    <iidm:line id="L-7-8-1 " name="Bus 7_Clinch R_1 " r="2.6471159999999996" x="13.559328" b1="5.093467758874186E-5" b2="5.093467758874186E-5" voltageLevelId1="VL7-29" bus1="B7" connectableBus1="B7" voltageLevelId2="VL8" bus2="B8" connectableBus2="B8"/>
    <iidm:line id="L-8-9-1 " name="Clinch R_Saltvill_1 " r="1.8853560000000003" x="9.617220000000001" b1="1.4387733669397188E-4" b2="1.4387733669397188E-4" voltageLevelId1="VL8" bus1="B8" connectableBus1="B8" voltageLevelId2="VL9-55" bus2="B9" connectableBus2="B9"/>
    <iidm:line id="L-9-10-1 " name="Saltvill_Bus 10_1 " r="7.027236" x="31.974875999999995" b1="1.1552194917034235E-4" b2="1.1552194917034235E-4" voltageLevelId1="VL9-55" bus1="B9" connectableBus1="B9" voltageLevelId2="VL10-51" bus2="B10" connectableBus2="B10"/>
    <iidm:line id="L-9-11-1 " name="Saltvill_Tazewell_1 " r="4.913352" x="16.149312000000002" b1="5.7235874816215084E-5" b2="5.7235874816215084E-5" voltageLevelId1="VL9-55" bus1="B9" connectableBus1="B9" voltageLevelId2="VL11-41-43" bus2="B11" connectableBus2="B11"/>
    <iidm:line id="L-9-12-1 " name="Saltvill_Glen Lyn_1 " r="12.340511999999999" x="56.17980000000001" b1="2.0268851081705526E-4" b2="2.0268851081705526E-4" voltageLevelId1="VL9-55" bus1="B9" connectableBus1="B9" voltageLevelId2="VL12" bus2="B12" connectableBus2="B12"/>
    <iidm:line id="L-9-13-1 " name="Saltvill_Bus 13_1 " r="9.160164" x="30.089519999999997" b1="1.0659525309808862E-4" b2="1.0659525309808862E-4" voltageLevelId1="VL9-55" bus1="B9" connectableBus1="B9" voltageLevelId2="VL13-49" bus2="B13" connectableBus2="B13"/>
    <iidm:line id="L-10-12-1 " name="Bus 10_Glen Lyn_1 " r="5.275188000000001" x="24.033528" b1="8.611636210880068E-5" b2="8.611636210880068E-5" voltageLevelId1="VL10-51" bus1="B10" connectableBus1="B10" voltageLevelId2="VL12" bus2="B12" connectableBus2="B12"/>
    <iidm:line id="L-11-13-1 " name="Tazewell_Bus 13_1 " r="4.246812" x="13.940208" b1="4.935937828187356E-5" b2="4.935937828187356E-5" voltageLevelId1="VL11-41-43" bus1="B11" connectableBus1="B11" voltageLevelId2="VL13-49" bus2="B13" connectableBus2="B13"/>
    <iidm:line id="L-12-13-1 " name="Glen Lyn_Bus 13_1 " r="3.389832" x="11.04552" b1="1.585801302247427E-4" b2="1.585801302247427E-4" voltageLevelId1="VL12" bus1="B12" connectableBus1="B12" voltageLevelId2="VL13-49" bus2="B13" connectableBus2="B13"/>
    <iidm:line id="L-12-16-1 " name="Glen Lyn_Bus 16_1 " r="3.42792" x="15.482772" b1="5.671077504725898E-5" b2="5.671077504725898E-5" voltageLevelId1="VL12" bus1="B12" connectableBus1="B12" voltageLevelId2="VL16" bus2="B16" connectableBus2="B16"/>
    <iidm:line id="L-12-17-1 " name="Glen Lyn_Bus 17_1 " r="7.560468000000001" x="34.08876" b1="1.2497374501155222E-4" b2="1.2497374501155222E-4" voltageLevelId1="VL12" bus1="B12" connectableBus1="B12" voltageLevelId2="VL17" bus2="B17" connectableBus2="B17"/>
    <iidm:line id="L-13-14-1 " name="Bus 13_Bus 14_1 " r="2.513808" x="8.265096000000002" b1="2.8880487292585587E-5" b2="2.8880487292585587E-5" voltageLevelId1="VL13-49" bus1="B13" connectableBus1="B13" voltageLevelId2="VL14-46" bus2="B14" connectableBus2="B14"/>
    <iidm:line id="L-13-15-1 " name="Bus 13_Bus 15_1 " r="5.1228359999999995" x="16.549236" b1="6.038647342995169E-5" b2="6.038647342995169E-5" voltageLevelId1="VL13-49" bus1="B13" connectableBus1="B13" voltageLevelId2="VL15-45" bus2="B15" connectableBus2="B15"/>
    <iidm:line id="L-14-15-1 " name="Bus 14_Bus 15_1 " r="3.256524" x="10.417067999999999" b1="3.885738290275152E-5" b2="3.885738290275152E-5" voltageLevelId1="VL14-46" bus1="B14" connectableBus1="B14" voltageLevelId2="VL15-45" bus2="B15" connectableBus2="B15"/>
    <iidm:line id="L-18-19-1 " name="Sprigg_Bus 19_1 " r="87.79284" x="130.4514" voltageLevelId1="VL4-18" bus1="B18" connectableBus1="B18" voltageLevelId2="VL19" bus2="B19" connectableBus2="B19"/>
    <iidm:line id="L-19-20-1 " name="Bus 19_Bus 20_1 " r="53.89451999999999" x="82.65096" voltageLevelId1="VL19" bus1="B19" connectableBus1="B19" voltageLevelId2="VL20-21" bus2="B20" connectableBus2="B20"/>
    <iidm:line id="L-21-22-1 " name="Bus 21_Bus 22_1 " r="14.016384" x="22.281480000000002" voltageLevelId1="VL20-21" bus1="B21" connectableBus1="B21" voltageLevelId2="VL22" bus2="B22" connectableBus2="B22"/>
    <iidm:line id="L-22-23-1 " name="Bus 22_Bus 23_1 " r="1.8853560000000003" x="2.894688" voltageLevelId1="VL22" bus1="B22" connectableBus1="B22" voltageLevelId2="VL23" bus2="B23" connectableBus2="B23"/>
    <iidm:line id="L-22-38-1 " name="Bus 22_Bus 38_1 " r="3.6564479999999997" x="5.61798" voltageLevelId1="VL22" bus1="B22" connectableBus1="B22" voltageLevelId2="VL38" bus2="B38" connectableBus2="B38"/>
    <iidm:line id="L-23-24-1 " name="Bus 23_Bus 24_1 " r="31.61304" x="48.75264" b1="2.205419029615627E-5" b2="2.205419029615627E-5" voltageLevelId1="VL23" bus1="B23" connectableBus1="B23" voltageLevelId2="VL24-26" bus2="B24" connectableBus2="B24"/>
    <iidm:line id="L-24-25-1 " name="Bus 24_Bus 25_1 " r="0.0" x="234.24120000000002" voltageLevelId1="VL24-26" bus1="B24" connectableBus1="B24" voltageLevelId2="VL25" bus2="B25" connectableBus2="B25"/>
    <iidm:line id="L-24-25-2 " name="Bus 24_Bus 25_2 " r="0.0" x="225.10008" voltageLevelId1="VL24-26" bus1="B24" connectableBus1="B24" voltageLevelId2="VL25" bus2="B25" connectableBus2="B25"/>
    <iidm:line id="L-25-30-1 " name="Bus 25_Bus 30_1 " r="25.709400000000006" x="38.468880000000006" voltageLevelId1="VL25" bus1="B25" connectableBus1="B25" voltageLevelId2="VL30" bus2="B30" connectableBus2="B30"/>
    <iidm:line id="L-26-27-1 " name="Bus 26_Bus 27_1 " r="31.4226" x="48.37176" voltageLevelId1="VL24-26" bus1="B26" connectableBus1="B26" voltageLevelId2="VL27" bus2="B27" connectableBus2="B27"/>
    <iidm:line id="L-27-28-1 " name="Bus 27_Bus 28_1 " r="11.769192" x="18.167976" voltageLevelId1="VL27" bus1="B27" connectableBus1="B27" voltageLevelId2="VL28" bus2="B28" connectableBus2="B28"/>
    <iidm:line id="L-28-29-1 " name="Bus 28_Bus 29_1 " r="7.960392" x="11.178828000000001" voltageLevelId1="VL28" bus1="B28" connectableBus1="B28" voltageLevelId2="VL7-29" bus2="B29" connectableBus2="B29"/>
    <iidm:line id="L-29-52-1 " name="Bus 29_Bus 52_1 " r="27.461448" x="35.61228" voltageLevelId1="VL7-29" bus1="B29" connectableBus1="B29" voltageLevelId2="VL52" bus2="B52" connectableBus2="B52"/>
    <iidm:line id="L-30-31-1 " name="Bus 30_Bus 31_1 " r="62.08344" x="94.64868" voltageLevelId1="VL30" bus1="B30" connectableBus1="B30" voltageLevelId2="VL31" bus2="B31" connectableBus2="B31"/>
    <iidm:line id="L-31-32-1 " name="Bus 31_Bus 32_1 " r="96.55308" x="143.7822" voltageLevelId1="VL31" bus1="B31" connectableBus1="B31" voltageLevelId2="VL32-34" bus2="B32" connectableBus2="B32"/>
    <iidm:line id="L-32-33-1 " name="Bus 32_Bus 33_1 " r="7.465248" x="6.85584" voltageLevelId1="VL32-34" bus1="B32" connectableBus1="B32" voltageLevelId2="VL33" bus2="B33" connectableBus2="B33"/>
    <iidm:line id="L-34-35-1 " name="Bus 34_Bus 35_1 " r="9.90288" x="14.85432" b1="8.401596303297626E-6" b2="8.401596303297626E-6" voltageLevelId1="VL32-34" bus1="B34" connectableBus1="B34" voltageLevelId2="VL35" bus2="B35" connectableBus2="B35"/>
    <iidm:line id="L-35-36-1 " name="Bus 35_Bus 36_1 " r="8.18892" x="10.226628" b1="4.200798151648813E-6" b2="4.200798151648813E-6" voltageLevelId1="VL35" bus1="B35" connectableBus1="B35" voltageLevelId2="VL36" bus2="B36" connectableBus2="B36"/>
    <iidm:line id="L-36-37-1 " name="Bus 36_Bus 37_1 " r="5.52276" x="6.970104" voltageLevelId1="VL36" bus1="B36" connectableBus1="B36" voltageLevelId2="VL37" bus2="B37" connectableBus2="B37"/>
    <iidm:line id="L-36-40-1 " name="Bus 36_Bus 40_1 " r="5.7132" x="8.874504" voltageLevelId1="VL36" bus1="B36" connectableBus1="B36" voltageLevelId2="VL40-56" bus2="B40" connectableBus2="B40"/>
    <iidm:line id="L-37-38-1 " name="Bus 37_Bus 38_1 " r="12.397644" x="19.215396000000002" b1="5.250997689561017E-6" b2="5.250997689561017E-6" voltageLevelId1="VL37" bus1="B37" connectableBus1="B37" voltageLevelId2="VL38" bus2="B38" connectableBus2="B38"/>
    <iidm:line id="L-37-39-1 " name="Bus 37_Bus 39_1 " r="4.551516" x="7.217676000000001" voltageLevelId1="VL37" bus1="B37" connectableBus1="B37" voltageLevelId2="VL39-57" bus2="B39" connectableBus2="B39"/>
    <iidm:line id="L-38-44-1 " name="Bus 38_Bus 44_1 " r="5.503716" x="11.140740000000001" b1="5.250997689561017E-6" b2="5.250997689561017E-6" voltageLevelId1="VL38" bus1="B38" connectableBus1="B38" voltageLevelId2="VL44" bus2="B44" connectableBus2="B44"/>
    <iidm:line id="L-38-48-1 " name="Bus 38_Bus 48_1 " r="5.941728" x="9.179208" voltageLevelId1="VL38" bus1="B38" connectableBus1="B38" voltageLevelId2="VL48" bus2="B48" connectableBus2="B48"/>
    <iidm:line id="L-38-49-1 " name="Bus 38_Bus 49_1 " r="21.9006" x="33.707879999999996" b1="7.876496534341525E-6" b2="7.876496534341525E-6" voltageLevelId1="VL38" bus1="B38" connectableBus1="B38" voltageLevelId2="VL13-49" bus2="B49" connectableBus2="B49"/>
    <iidm:line id="L-41-42-1 " name="Tazewell_Bus 42_1 " r="39.421079999999996" x="67.03488" voltageLevelId1="VL11-41-43" bus1="B41" connectableBus1="B41" voltageLevelId2="VL42" bus2="B42" connectableBus2="B42"/>
    <iidm:line id="L-41-43-1 " name="Tazewell_Tazewell_1 " r="0.0" x="78.46127999999999" voltageLevelId1="VL11-41-43" bus1="B41" connectableBus1="B41" voltageLevelId2="VL11-41-43" bus2="B43" connectableBus2="B43"/>
    <iidm:line id="L-56-41-1 " name="Bus 56_Tazewell_1 " r="105.31332" x="104.55156000000001" voltageLevelId1="VL40-56" bus1="B56" connectableBus1="B56" voltageLevelId2="VL11-41-43" bus2="B41" connectableBus2="B41"/>
    <iidm:line id="L-56-42-1 " name="Bus 56_Bus 42_1 " r="40.4685" x="67.41575999999999" voltageLevelId1="VL40-56" bus1="B56" connectableBus1="B56" voltageLevelId2="VL42" bus2="B42" connectableBus2="B42"/>
    <iidm:line id="L-44-45-1 " name="Bus 44_Bus 45_1 " r="11.883456" x="23.652648000000003" b1="1.0501995379122034E-5" b2="1.0501995379122034E-5" voltageLevelId1="VL44" bus1="B44" connectableBus1="B44" voltageLevelId2="VL15-45" bus2="B45" connectableBus2="B45"/>
    <iidm:line id="L-46-47-1 " name="Bus 46_Bus 47_1 " r="4.38012" x="12.949919999999999" b1="8.401596303297626E-6" b2="8.401596303297626E-6" voltageLevelId1="VL14-46" bus1="B46" connectableBus1="B46" voltageLevelId2="VL47" bus2="B47" connectableBus2="B47"/>
    <iidm:line id="L-47-48-1 " name="Bus 47_Bus 48_1 " r="3.466008" x="4.437252" voltageLevelId1="VL47" bus1="B47" connectableBus1="B47" voltageLevelId2="VL48" bus2="B48" connectableBus2="B48"/>
    <iidm:line id="L-48-49-1 " name="Bus 48_Bus 49_1 " r="15.882696000000001" x="24.56676" b1="1.260239445494644E-5" b2="1.260239445494644E-5" voltageLevelId1="VL48" bus1="B48" connectableBus1="B48" voltageLevelId2="VL13-49" bus2="B49" connectableBus2="B49"/>
    <iidm:line id="L-49-50-1 " name="Bus 49_Bus 50_1 " r="15.254244000000002" x="24.37632" voltageLevelId1="VL13-49" bus1="B49" connectableBus1="B49" voltageLevelId2="VL50" bus2="B50" connectableBus2="B50"/>
    <iidm:line id="L-50-51-1 " name="Bus 50_Bus 51_1 " r="26.394984" x="41.896800000000006" voltageLevelId1="VL50" bus1="B50" connectableBus1="B50" voltageLevelId2="VL10-51" bus2="B51" connectableBus2="B51"/>
    <iidm:line id="L-52-53-1 " name="Bus 52_Bus 53_1 " r="14.511528" x="18.739296" voltageLevelId1="VL52" bus1="B52" connectableBus1="B52" voltageLevelId2="VL53" bus2="B53" connectableBus2="B53"/>
    <iidm:line id="L-53-54-1 " name="Bus 53_Bus 54_1 " r="35.764632" x="44.18208" voltageLevelId1="VL53" bus1="B53" connectableBus1="B53" voltageLevelId2="VL54" bus2="B54" connectableBus2="B54"/>
    <iidm:line id="L-54-55-1 " name="Bus 54_Saltvill_1 " r="32.984207999999995" x="43.134660000000004" voltageLevelId1="VL54" bus1="B54" connectableBus1="B54" voltageLevelId2="VL9-55" bus2="B55" connectableBus2="B55"/>
    <iidm:line id="L-57-56-1 " name="Bus 57_Bus 56_1 " r="33.136559999999996" x="49.5144" voltageLevelId1="VL39-57" bus1="B57" connectableBus1="B57" voltageLevelId2="VL40-56" bus2="B56" connectableBus2="B56"/>
    <iidm:area id="A1" name="1           " areaType="ControlArea" interchangeTarget="0.0">
        <iidm:voltageLevelRef id="VL1"/>
        <iidm:voltageLevelRef id="VL2"/>
        <iidm:voltageLevelRef id="VL3"/>
        <iidm:voltageLevelRef id="VL4-18"/>
        <iidm:voltageLevelRef id="VL5"/>
        <iidm:voltageLevelRef id="VL6"/>
        <iidm:voltageLevelRef id="VL7-29"/>
        <iidm:voltageLevelRef id="VL8"/>
        <iidm:voltageLevelRef id="VL9-55"/>
        <iidm:voltageLevelRef id="VL10-51"/>
        <iidm:voltageLevelRef id="VL11-41-43"/>
        <iidm:voltageLevelRef id="VL12"/>
        <iidm:voltageLevelRef id="VL13-49"/>
        <iidm:voltageLevelRef id="VL14-46"/>
        <iidm:voltageLevelRef id="VL15-45"/>
        <iidm:voltageLevelRef id="VL16"/>
        <iidm:voltageLevelRef id="VL17"/>
        <iidm:voltageLevelRef id="VL19"/>
        <iidm:voltageLevelRef id="VL20-21"/>
        <iidm:voltageLevelRef id="VL22"/>
        <iidm:voltageLevelRef id="VL23"/>
        <iidm:voltageLevelRef id="VL24-26"/>
        <iidm:voltageLevelRef id="VL25"/>
        <iidm:voltageLevelRef id="VL27"/>
        <iidm:voltageLevelRef id="VL28"/>
        <iidm:voltageLevelRef id="VL30"/>
        <iidm:voltageLevelRef id="VL31"/>
        <iidm:voltageLevelRef id="VL32-34"/>
        <iidm:voltageLevelRef id="VL33"/>
        <iidm:voltageLevelRef id="VL35"/>
        <iidm:voltageLevelRef id="VL36"/>
        <iidm:voltageLevelRef id="VL37"/>
        <iidm:voltageLevelRef id="VL38"/>
        <iidm:voltageLevelRef id="VL39-57"/>
        <iidm:voltageLevelRef id="VL40-56"/>
        <iidm:voltageLevelRef id="VL42"/>
        <iidm:voltageLevelRef id="VL44"/>
        <iidm:voltageLevelRef id="VL47"/>
        <iidm:voltageLevelRef id="VL48"/>
        <iidm:voltageLevelRef id="VL50"/>
        <iidm:voltageLevelRef id="VL52"/>
        <iidm:voltageLevelRef id="VL53"/>
        <iidm:voltageLevelRef id="VL54"/>
    </iidm:area>
    <iidm:extension id="VL1">
        <slt:slackTerminal id="B1-L1 "/>
    </iidm:extension>
</iidm:network>
